Circuit: * C:\Users\Manuel Mollon\source\repos\TC-TPFF\simulaciones\sim_etapasJuntasMonteCarlo.asc

Early termination of direct N-R iteration.
Direct Newton iteration failed to find .op point.  (Use ".option noopiter" to skip.)
Starting Gmin stepping
Gmin = 10
vernier = 0.5
vernier = 0.25
vernier = 0.125
Gmin = 5.6588
vernier = 0.0625
vernier = 0.03125
vernier = 0.015625
Gmin = 5.48561
vernier = 0.0078125
vernier = 0.00390625
vernier = 0.00195313
vernier = 0.000976563
Gmin = 5.49362
vernier = 0.000488281
Gmin = 0
Gmin stepping failed

Starting source stepping with srcstepmethod=0
Source Step = 3.0303%
Source Step = 33.3333%
Source Step = 63.6364%
Source Step = 93.9394%
Source stepping succeeded in finding the operating point.

.step run=1
.step run=11
.step run=21
.step run=31
.step run=41
.step run=51
.step run=61
.step run=71
.step run=81
.step run=91
.step run=100

Date: Fri Nov 23 15:13:16 2018
Total elapsed time: 948.847 seconds.

tnom = 27
temp = 27
method = trap
totiter = 1643
traniter = 0
tranpoints = 0
accept = 0
rejected = 0
matrix size = 530
fillins = 28404
Matrix Compiler1: 1172691 opcodes
Matrix Compiler2: 632.46 KB object code size  283.8/137.4/[118.9]

